$ Setup, Configure, Parameterized by Andri Ramdhani (BMKG - andri.ramdhani@bmkg.go.id)
$ Upgraded to WW3 version 7.14 and edited by Tyo 
$ WAVEWATCH III multi for Indonesia
$
  4 1 F 1 T T 
$
  'gfs' F F T F F F F F F
$ 'ecmwf' F F T F F F F
$
$ 'points'
$
  'global'  'no' 'no' 'gfs' 'no' 'no' 'no' 'no' 'no' 'no'   1  1  0.00 1.00  F
  'reg'     'no' 'no' 'gfs' 'no' 'no' 'no' 'no' 'no' 'no'   2  1  0.00 1.00  F
  'sreg'    'no' 'no' 'gfs' 'no' 'no' 'no' 'no' 'no' 'no'   3  1  0.00 1.00  F
  'hires'   'no' 'no' 'gfs' 'no' 'no' 'no' 'no' 'no' 'no'   4  1  0.00 1.00  F
$
 20251027 000000 20251112 000000
$
 F F
$
$ Field Output2
 20251027 000000 3600 20251112 000000 
$ (1) Forcing Fields
  T
$ DPT CUR WND AST WLV ICE IBG D50
  F   F   T   F   F   F   F   F
$ (2) Standard mean wave Parameters
  T
$ HS  LM  T02 T0M1 T01 FP DIR SPR DP
  T   T   T   T    T   F   T   F   T
$ (3) Frequency-dependent parameters
  F
$ EF TH1M STH1M TH2M STH2M WN
$  T   T   T   F   F   F
$ (4) Spectral Partition Parameters
  T
$ PHS PTP PLP PDIR PSPR PWS TWS PNR
  T   T   F   T   F   F   F   F
$ (5) Atmosphere-waves layer
  F
$ UST CHA CGE FAW TAW TWA WCC WCF WCH WCM
$  T   T   T   T   T   T   T   T   T   T
$ (6) Wave-Ocean layer
  F
$ SXY TWO BHD FOC TUS USS P2S USF P2L
$  T   T   T   T   T   T   T   F   F   F
$ (7) Wave-bottom layer
  F
$ ABR UBR BED FBB TBB
$  T   T   T   T   T
$ (8) Spectrum parameters
  F
$ MSS MSC
$  T   T
$ (9) Numerical diagnostics
  F
$ DTD FC  CFX CFD CFK
$  T   T   T   T   T
$ (10) User defined (NOEXTR flags needed)
  F
$  U1  U2
$ T   T
$
$ Point Output
$
 20251027 000000  3600 20251112 000000   
$ Boundary points for Jakarta Port
 114.062639424 -6.8879777765    'S44_1'
 114.062639424 -6.7251833765    'S44_7'
 114.062639424 -6.5623889765    'S44_13'
 114.062639424 -6.3995945765    'S44_19'
 114.062639424 -6.2368001765    'S44_25'
 114.062639424 -6.0740057765    'S44_31'
 114.062639424 -5.9112113765    'S44_37'
 114.062639424 -5.7484169765    'S44_43'
 114.062639424 -5.5856225765    'S44_49'
 114.062639424 -5.4228281765    'S44_55'
 114.062639424 -5.1515041765    'S44_65'
 105.892875024 -5.1243717765    'S45_1'
 106.055188224 -5.1243717765    'S45_7'
 106.217501424 -5.1243717765    'S45_13'
 106.379814624 -5.1243717765    'S45_19'
 106.542127824 -5.1243717765    'S45_25'
 106.704441024 -5.1243717765    'S45_31'
 106.866754224 -5.1243717765    'S45_37'
 107.029067424 -5.1243717765    'S45_43'
 107.191380624 -5.1243717765    'S45_49'
 107.353693824 -5.1243717765    'S45_55'
 107.516007024 -5.1243717765    'S45_61'
 107.678320224 -5.1243717765    'S45_67'
 107.840633424 -5.1243717765    'S45_73'
 108.002946624 -5.1243717765    'S45_79'
 108.165259824 -5.1243717765    'S45_85'
 108.327573024 -5.1243717765    'S45_91'
 108.489886224 -5.1243717765    'S45_97'
 108.652199424 -5.1243717765    'S45_103'
 108.814512624 -5.1243717765    'S45_109'
 108.976825824 -5.1243717765    'S45_115'
 109.139139024 -5.1243717765    'S45_121'
 109.301452224 -5.1243717765    'S45_127'
 109.463765424 -5.1243717765    'S45_133'
 109.626078624 -5.1243717765    'S45_139'
 109.788391824 -5.1243717765    'S45_145'
 109.950705024 -5.1243717765    'S45_151'
 110.113018224 -5.1243717765    'S45_157'
 110.275331424 -5.1243717765    'S45_163'
 110.437644624 -5.1243717765    'S45_169'
 110.599957824 -5.1243717765    'S45_175'
 110.762271024 -5.1243717765    'S45_181'
 110.924584224 -5.1243717765    'S45_187'
 111.086897424 -5.1243717765    'S45_193'
 111.249210624 -5.1243717765    'S45_199'
 111.411523824 -5.1243717765    'S45_205'
 111.573837024 -5.1243717765    'S45_211'
 111.736150224 -5.1243717765    'S45_217'
 111.898463424 -5.1243717765    'S45_223'
 112.060776624 -5.1243717765    'S45_229'
 112.223089824 -5.1243717765    'S45_235'
 112.385403024 -5.1243717765    'S45_241'
 112.547716224 -5.1243717765    'S45_247'
 112.710029424 -5.1243717765    'S45_253'
 112.872342624 -5.1243717765    'S45_259'
 113.034655824 -5.1243717765    'S45_265'
 113.196969024 -5.1243717765    'S45_271'
 113.521595424 -5.1243717765    'S45_283'
 114.062639424 -5.1243717765    'S45_303'
 105.892875024 -6.0468733765    'S46_1'
 105.892875024 -5.8840789765    'S46_7'
 105.892875024 -5.7212845765    'S46_13'
 105.892875024 -5.5584901765    'S46_19'
 105.892875024 -5.3956957765    'S46_25'
 105.892875024 -5.2329013765    'S46_31'
 105.892875024 -5.1515041765    'S46_34'
$  107.2356 -4.5045646 'Point_1'
$
 0.0   0.0  'STOPSTRING'
$ Track Output
 20151203 000000 0 20141208 000000
$ Restart file
 20251027 120000  1 tgl_restart00 
$ Nest output
 20150726 000000 0 20150726 000000
$ PArtition data
 20141203 000000 0 20141208 000000
$
  'the_end'  0
$
 'STP'
$ 
$End of ww3_multi.inp
$
$
